
#======================================================================
# CRYSTAL DATA
#----------------------------------------------------------------------
data_VESTA_phase_1

_chemical_name_common                  'O2 Si'
_cell_length_a                         4.913700
_cell_length_b                         4.913700
_cell_length_c                         5.404700
_cell_angle_alpha                      90.000000
_cell_angle_beta                       90.000000
_cell_angle_gamma                      120.000000
_cell_volume                           113.010684
_space_group_name_H-M_alt              'Custom'
_space_group_IT_number                 1

loop_
_space_group_symop_operation_xyz
   'x, y, z'
   'y, x, -z+2/3'
   '-y, x-y, z+2/3'
   '-x, -x+y, -z+1/3'
   '-x+y, -x, z+1/3'
   'x-y, -y, -z'

loop_
   _atom_site_label
   _atom_site_occupancy
   _atom_site_fract_x
   _atom_site_fract_y
   _atom_site_fract_z
   _atom_site_adp_type
   _atom_site_B_iso_or_equiv
   _atom_site_type_symbol
   Si         1.0     0.469700     0.000000     0.000000    Biso  1.000000 Si
   O          1.0     0.413300     0.267200     0.118800    Biso  1.000000 O
